887.300 304.050 12.2400  
71.4000 303.620 10.7500 -1.5700 -0.8700
122.000 303.380 10.8200 -1.5700 -1.1000
170.100 303.360 10.9100 -1.3300 -1.1600
219.200 303.240 10.5300 -1.1600 -1.0400
270.000 303.240 10.7900 -0.9300 -0.8100
319.200 303.330 10.5100 -0.6400 -0.7500
370.000 303.300 10.5800 -0.4600 -0.9300
419.300 303.290 10.6100 -0.4100 -1.2800
470.100 303.280 10.7400 -0.3500 -1.3900
521.500 303.280 10.6700 -0.3500 -1.1600
570.800 303.370 10.5100 -0.4600 -0.8100
624.000 303.370 10.4100 -0.5200 -0.2300
675.100 304.650 7.05000 -0.3500 0.35000
726.400 304.650 7.64000 0.23000 0.64000
777.300 305.390 6.37000 0.64000 0.64000
830.400 305.620 6.87000 0.70000 0.46000
882.700 305.640 6.88000 0.52000 0.52000
935.300 305.640 6.87000 0.35000 0.64000
988.500 305.760 6.93000 0.23000 0.52000
1043.70 306.000 6.68000 0.17000 0.35000
1095.60 306.240 6.54000 0.12000 0.17000
1151.10 306.260 6.40000 0.12000 0.23000
1204.00 306.400 6.22000 0.12000 0.29000
1257.00 306.430 6.10000 0.12000 0.12000
1312.80 306.460 6.10000 0.35000 -0.1700
1366.00 306.610 6.11000 0.70000 -0.6400
1421.30 306.650 5.96000 0.81000 -0.9300
1477.10 306.690 5.82000 0.75000 -0.9900
1535.10 306.740 5.56000 0.52000 -1.0400
1588.70 306.780 5.54000 0.46000 -1.4500
1647.30 306.780 5.68000 0.41000 -1.5700
1702.20 306.780 5.52000 0.29000 -1.3900
1758.50 306.840 5.52000 0.52000 -1.3300
1815.90 306.900 5.55000 1.04000 -1.2200
1874.50 306.920 5.29000 1.33000 -0.9300
1931.30 306.880 5.26000 1.33000 -0.5800
1990.70 306.880 5.19000 1.28000 -0.4100
2047.80 307.070 5.03000 1.28000 -0.1700
2105.80 307.480 4.89000 1.04000 0.29000
2165.40 307.670 4.94000 0.81000 0.81000
2225.00 307.870 5.03000 0.87000 1.33000
2286.90 308.070 5.00000 0.87000 1.57000
2345.70 308.170 4.98000 0.75000 1.74000
2405.30 308.260 4.98000 0.75000 1.68000
2465.50 308.260 4.99000 0.75000 1.33000
2527.70 308.360 5.00000 0.70000 0.93000
2589.10 308.470 4.95000 1.28000 0.70000
2649.50 308.700 4.87000 2.15000 0.64000
2710.80 309.050 4.77000 2.96000 0.75000
2775.70 309.510 4.64000 3.19000 1.51000
2838.60 310.100 4.23000 2.67000 2.20000
2901.20 310.230 4.15000 2.38000 2.84000
2965.70 310.600 3.80000 2.38000 3.54000
3030.00 311.670 3.20000 2.49000 3.83000
3094.60 312.400 2.56000 2.78000 3.60000
3160.60 312.250 2.62000 2.96000 3.19000
3226.20 312.250 2.62000 3.19000 3.07000
3292.30 312.540 2.45000 2.96000 3.25000
3360.40 312.590 2.29000 2.61000 3.42000
3425.50 312.960 2.13000 2.38000 3.42000
3492.50 312.790 2.24000 2.73000 3.48000
3560.80 312.790 2.30000 3.13000 3.65000
3628.60 312.990 2.14000 3.42000 3.42000
3698.10 313.070 2.00000 3.94000 3.19000
3766.40 313.750 1.64000 4.18000 3.60000
3835.70 313.840 1.57000 3.71000 4.00000
3907.10 314.300 1.13000 3.25000 3.60000
3977.90 314.410 0.98000 3.36000 3.25000
4050.60 314.520 0.87000 3.54000 3.07000
4122.20 314.520 0.88000 3.36000 2.44000
4194.80 314.890 0.73000 3.07000 1.91000
4267.20 314.900 0.71000 2.84000 1.86000
4339.60 314.920 0.68000 2.78000 2.20000
4412.70 315.060 0.58000 2.78000 2.44000
4488.50 315.340 0.43000 2.49000 2.15000
4562.50 315.980 0.38000 2.67000 2.15000
4639.00 316.150 0.40000 3.31000 2.49000
4714.80 316.570 0.37000 3.65000 2.78000
4793.30 316.880 0.36000 3.71000 3.02000
4869.10 316.950 0.35000 4.47000 3.07000
4947.40 317.150 0.32000 5.51000 3.07000
5026.10 317.480 0.26000 6.73000 3.07000
5106.60 317.700 0.22000 7.66000 2.67000
5186.40 318.050 0.22000 8.64000 2.15000
5266.20 318.650 0.19000 8.99000 1.74000
5349.70 318.900 0.18000 9.63000 0.75000
5429.30 319.280 0.16000 10.3800 -0.1700
5515.30 319.290 0.16000 10.6100 -0.7500
5598.80 319.310 0.16000 11.1400 -1.3900
5681.60 319.720 0.17000 11.8300 -2.0900
5766.40 320.020 0.18000 11.7700 -2.4900
5852.90 320.450 0.20000 11.7700 -3.3600
5939.70 320.640 0.19000 11.4800 -3.5400
6027.50 320.710 0.18000 11.0800 -3.1900
6114.80 320.790 0.16000 10.6700 -3.0700
6205.40 321.270 0.12000 10.6700 -3.4800
6294.20 321.370 0.13000 11.0200 -3.7700
6386.30 321.490 0.13000 10.9000 -3.9400
6478.70 322.270 0.09000 10.3800 -5.0500
6570.90 322.800 0.08000 10.1500 -6.6100
6664.70 323.220 0.08000 10.6100 -7.9500
6758.80 323.380 0.09000 11.6600 -9.1100
6854.60 323.560 0.09000 11.3100 -10.560
6951.20 323.830 0.11000 11.3100 -11.310
7049.00 323.830 0.10000 11.1400 -11.540
7149.70 324.190 0.11000 10.2100 -11.720
7248.70 324.690 0.10000 9.69000 -11.430
7349.90 325.490 0.04000 9.45000 -10.500
7453.10 326.170 0.03000 9.57000 -9.9200
7556.10 326.180 0.03000 9.80000 -9.4500
7662.30 326.350 0.03000 10.3800 -8.9900
7767.00 327.090 0.03000 11.3100 -9.8000
7874.70 327.710 0.03000 11.8300 -11.020
7984.50 328.770 0.02000 12.7000 -11.830
8095.50 330.000 0.02000 12.8800 -12.010
8206.50 330.270 0.02000 13.2800 -11.540
8322.30 330.850 0.02000 14.1500 -11.080
8435.80 331.590 0.02000 14.6700 -11.080
8553.40 332.220 0.02000 15.0800 -11.370
8669.70 333.010 0.02000 14.8500 -11.190
8790.80 333.260 0.02000 15.6600 -10.150
8914.40 333.970 0.02000 16.4100 -9.4500
9037.00 334.420 0.02000 16.4700 -9.1600
9162.30 335.190 0.01000 15.5400 -10.320
9289.60 336.280 0.01000 15.6600 -10.960
9420.20 337.410 0.01000 17.9200 -11.190
9552.90 339.480 0.01000 20.1800 -10.730
9688.50 342.190 0.01000 21.6900 -11.540
9826.40 343.610 0.01000 24.4800 -12.470
9969.00 345.230 0.01000 26.5100 -13.510
10110.9 346.900 0.01000 28.1900 -14.380
10257.3 348.170 0.01000 29.1700 -14.850
10404.6 348.560 0.01000 29.8700 -13.920
10557.4 348.840 0.01000 30.3900 -13.510
10868.5 350.630 0.01000 31.8400 -12.240
11031.4 351.850 0.01000 31.0900 -10.730
11193.8 353.440 0.01000 29.9300 -9.7400
11364.2 354.950 0.00000 28.0100 -10.210
11711.1 358.030 0.00000 27.9000 -12.410
11890.7 358.290 0.00000 27.9600 -14.270
12076.3 359.280 0.00000 28.8300 -12.240
12264.4 360.010 0.00000 28.5900 -9.8600
12457.0 361.500 0.00000 26.8000 -8.7000
12656.2 362.580 0.00000 24.5300 -8.0000
12862.7 363.930 0.00000 23.9000 -8.2400
13069.0 365.560 0.00000 22.5600 -7.7700
13286.4 367.670 0.00000 21.2900 -7.7700
13510.1 372.930 0.00000 21.6300 -7.8900
13741.7 378.940 0.00000 21.1100 -4.2900
13984.8 381.940 0.00000 17.5200 -4.3500
14235.8 384.960 0.00000 16.4700 -5.3400
14499.8 386.700 0.00000 15.3100 -1.6200
14770.4 392.020 0.00000 10.7300 0.93000
15051.3 394.980 0.00000 6.03000 0.12000
15349.8 395.890 0.00000 4.93000 -2.7300
15651.9 396.440 0.00000 6.03000 -4.4100
15975.4 403.410 0.00000 5.86000 -4.4100
16311.0 406.010 0.00000 5.92000 -5.5100
16670.5 416.810 0.00000 3.02000 -7.0800
17053.8 434.420 0.00000 6.03000 -3.1900
17472.6 443.710 0.00000 4.29000 -0.3500
17922.0 452.330 0.00000 0.75000 -2.2600
18413.0 465.470 0.00000 3.02000 -3.0200
18945.2 478.790 0.00000 -5.3900 1.57000
